/ New England Battery Energy Storage System 200 MW
/ SMIB 
7000  'GENCLS'   1   0.0   0.0 

/7000 'USRMDL' 1 'PLBVFU1' 1 1 3 4 3 6 1 1 'PLB' 1.0 50.0 0.00 0.00 /


/Siemens Inverters settings J should be 56, ICON 10, States =?, VARs? 
1000 'USRMDL' 1 'VSGS120' 101   1    10   58    9       100
				 0           0          2001        0            0
				 1           2002      2000        '1'           7          
				 0.145         1          0.1      0.79360       -0.79360
				 0.0252      0          0.02        4.0          1.0
				 0.003    0.0000        0.05        0.5          0.6
				-0.6         1          0.01        0.0          112
				 0.0         9999       2.0         0.2          99
				 -0.1         0.5       -0.5         0.5         -0.5 
				-0.1         1.0        1.0         50.0         50.0
				 0.02         0.08       50.0        2.0          2.0 
				 1.3         0.7        0.1         2.1          55.0
				 46.0        1.0        1.00        1.8542       45.0 
				 0.0003      0           0.06        0.005       100.0000 
				 0.1	 0.02	0.00  /



/MCP Control settings 		15 - ICON, 94 CON , 7 State, 30 VARs
 1000 'USRMDL' 1    'S120_PPC40'    107    0    15    94    7    30
             5000       2002      2000        '1 '       5000       5000          0          0          0          0          0       0         0          1       1
          0.01000        0.10000        0.50000        0.00000        0.02000
          0.60000        0.00000        0.11300        0.16002      999.00000
       -999.00000        0.00000        0.00000        0.435         -0.435
          1.00000       10.00000        0.02000       -0.01500        0.01500
          1.00000       -1.00000        0.79360       -0.79360        0.00000
          1.00000        1.00000        0.435         -0.435          0.79360
         -0.79360      999.00000     -999.00000      999.00000        999.00000
          0.00000        0.00000        0.00000        0.00000        0.00000
          0.10000        0.13000        0.00500        1.80000      126.44800
        999.00000       -0.20000        0.00000        0.00000        0.20000
          1.25000        0.00000        0.00000       -1.25000       55.00000
         56.00000       -0.20000       -0.10000        0.10000        0.20000
          2.00000        0.00000        0.00000       -2.00000        2.00000
         -2.00000        1.00000        0.10000        0.10000       -0.10000
          0.00000        0.10000       -0.10000        0.20000        0.90000
          0.20000        0.80000        0.00000        0.00000       80.00000
         81.00000        0.65000        0.60000        1.36000        1.41000
          0.88000        0.85000        1.11000        1.15000        0.02000
          0.02000        0.02000        0.02000        1.50000     /

/Siemens Inverters settings J should be 56, ICON 10, States =?, VARs? 
1001 'USRMDL' 1 'VSGS120' 101   1    10   58    9       100
				 0           0          3001        0            0
				 1           3002      3000        '1'           7          
				 0.145         1          0.1       0.79360       -0.79360
				 0.0252      0          0.02        4.0          1.0
				 0.003    0.0000        0.05        0.5          0.6
				-0.6         1          0.01        0.0          112
				 0.0         9999       2.0         0.2          99
				 -0.1         0.5       -0.5         0.5         -0.5 
				-0.1         1.0        1.0         50.0         50.0
				 0.02         0.08       50.0        2.0          2.0 
				 1.3         0.7        0.1         2.1          55.0
				 46.0        1.0        1.00        1.8542       45.0 
				 0.0003      0           0.06        0.005       100.0000 
				 0.1	 0.02	0.00  /


/MCP Control settings 		15 - ICON, 94 CON , 7 State, 30 VARs
 1001 'USRMDL' 1    'S120_PPC40'    107    0    15    94    7    30
             5000       3002       3000        '1 '       5000       5000          0          0          0          0          0       0         0          1        1
          0.01000        0.10000        0.50000        0.00000        0.02000
          0.60000        0.00000        0.11300        0.16002      999.00000
       -999.00000        0.00000        0.00000        0.435         -0.435
          1.00000       10.00000        0.02000       -0.01500        0.01500
          1.00000       -1.00000        0.79360       -0.79360        0.00000
          1.00000        1.00000        0.435         -0.435          0.79360
         -0.79360      999.00000     -999.00000      999.00000        999.00000
          0.00000        0.00000        0.00000        0.00000        0.00000
          0.10000        0.13000        0.00500        1.80000      126.44800
        999.00000       -0.20000        0.00000        0.00000        0.20000
          1.25000        0.00000        0.00000       -1.25000       55.00000
         56.00000       -0.20000       -0.10000        0.10000        0.20000
          2.00000        0.00000        0.00000       -2.00000        2.00000
         -2.00000        1.00000        0.10000        0.10000       -0.10000
          0.00000        0.10000       -0.10000        0.20000        0.90000
          0.20000        0.80000        0.00000        0.00000       80.00000
         81.00000        0.65000        0.60000        1.36000        1.41000
          0.88000        0.85000        1.11000        1.15000        0.02000
          0.02000        0.02000        0.02000        1.50000     /


//////// NEBES MAIN TRANSFORMER TAP CHANGER MODEL
5000, 'OLTC3T', 3000, 2000, 1, 40, 0, 10 /
